src/test/resources/ieeefiles/shenzhen_ieee.dat
 15/11/06                      100.0  2006 8              1163558078197_1
BUS DATA FOLLOWS                    598 ITEMS
   1 观澜站       1 1   0  1.00020.     0.       0.        0.      0.       115.0   0.    0.      0.      0.      0.        0   
   2 安良站       1 1   0  .983280.     0.       0.        0.      0.       115.0   0.    0.      0.      0.      0.        0   
   3 Bus_3        1 1   0  1.0   0.     0.       0.        0.      0.       0.      0.    0.      0.      0.      0.        0   
   4 李朗站       1 1   0  1.0   0.     0.       0.        0.      0.       115.0   0.    0.      0.      0.      0.        0   
   5 东湖站       1 1   0  1.01350.     0.       0.        0.      0.       230.0   0.    0.      0.      0.      0.        0   
   6 潭头站       1 1   0  1.0   0.     0.       0.        0.      0.       115.0   0.    0.      0.      0.      0.        0   
   7 高新站       1 1   0  .972320.     0.       0.        0.      0.       115.0   0.    0.      0.      0.      0.        0   
   8 李朗站       1 1   0  .993610.     0.       0.        0.      0.       230.0   0.    0.      0.      0.      0.        0   
   9 ST_深圳地区_ 1 1   2  1.0   0.     0.       0.        0.      12.6837  230.0   0.    99900.0 -99900.00.      0.        0   
  10 平安站       1 1   0  .994590.     0.       0.        0.      0.       230.0   0.    0.      0.      0.      0.        0   
  11 少年宫站     1 1   0  .961670.     0.       0.        0.      0.       115.0   0.    0.      0.      0.      0.        0   
  12 福田厂       1 1   2  1.0   0.     0.       0.        -0.021  1.5186   115.0   0.    99900.0 -99900.00.      0.        0   
  13 岗厦站       1 1   0  .99   0.     0.       0.        0.      0.       115.0   0.    0.      0.      0.      0.        0   
  14 沙头角站     1 1   0  .963020.     0.       0.        0.      0.       115.0   0.    0.      0.      0.      0.        0   
  15 景田站       1 1   0  1.02270.     0.       0.        0.      0.       115.0   0.    0.      0.      0.      0.        0   
  16 南山厂       1 1   2  1.0   0.     0.       0.        618.0186147.5423 115.0   0.    99900.0 -99900.00.      0.        0   
  17 安良站       1 1   0  .980110.     67.74029922.0999   0.      0.       10.5    0.    0.      0.      0.      .2        0   
  18 农科站       1 1   0  .982130.     0.       0.        0.      0.       115.0   0.    0.      0.      0.      0.        0   
  19 香港站       1 1   0  1.0   0.     0.       0.        0.      0.       115.0   0.    0.      0.      0.      0.        0   
  20 油松站       1 1   0  .983480.     33.0046  5.6132    0.      0.       10.5    0.    0.      0.      0.      .1002000  0   
  21 大芬站       1 1   0  .990850.     30.12430011.7594   0.      0.       10.5    0.    0.      0.      0.      0.05      0   
  22 春风站       1 1   0  .963020.     0.       0.        0.      0.       115.0   0.    0.      0.      0.      0.        0   
  23 Bus_23       1 1   0  1.0   0.     0.       0.        0.      0.       0.      0.    0.      0.      0.      0.        0   
  24 ST_深圳地区_ 1 1   2  1.0   0.     0.       0.        0.      0.       230.0   0.    99900.0 -99900.00.      0.        0   
  25 ST_深圳地区_ 1 1   2  1.0   0.     0.       0.        0.      -206.439 525.0   0.    99900.0 -99900.00.      0.        0   
  26 ST_深圳地区_ 1 1   2  1.0   0.     0.       0.        0.      0.       230.0   0.    99900.0 -99900.00.      0.        0   
  27 ST_深圳地区_ 1 1   2  1.0   0.     0.       0.        0.      0.       230.0   0.    99900.0 -99900.00.      0.        0   
  28 梅林站       1 1   0  1.01100.     0.       0.        0.      0.       115.0   0.    0.      0.      0.      0.        0   
  29 Bus_29       1 1   0  1.0   0.     0.       0.        0.      0.       0.      0.    0.      0.      0.      0.        0   
  30 农科站       1 1   0  .962580.     39.8181  18.8722   0.      0.       10.5    0.    0.      0.      0.      .16       0   
  31 文化站       1 1   0  1.0   0.     -41.46349-8.22769990.      0.       38.0    0.    0.      0.      0.      0.        0   
  32 龙华站       1 1   0  .991720.     240.06359-109.473900.      0.       10.5    0.    0.      0.      0.      0.059999  0   
  33 岗头站       1 1   0  .976850.     0.       0.        0.      0.       115.0   0.    0.      0.      0.      0.        0   
  34 新桥站       1 1   0  1.0   0.     36.2643  10.9045   0.      0.       10.5    0.    0.      0.      0.      .1920000  0   
  35 ST_深圳地区_ 1 1   2  1.0   0.     0.       0.        0.      26.7938  230.0   0.    99900.0 -99900.00.      0.        0   
  36 莞城站_EQU   1 1   0  1.0   0.     -0.0072  .3055     0.      0.       34.5    0.    0.      0.      0.      0.        0   
  37 坪山站       1 1   0  1.0   0.     0.       0.        0.      0.       10.5    0.    0.      0.      0.      0.        0   
  38 岭澳核电_EQU 1 1   0  1.0   0.     21.0335  -5.5454   0.      0.       525.0   0.    0.      0.      0.      0.        0   
  39 盘古石站     1 1   0  1.0   0.     0.       0.        0.      0.       115.0   0.    0.      0.      0.      0.        0   
  40 笋岗站       1 1   0  .973740.     38.1059  10.03479990.      0.       10.5    0.    0.      0.      0.      .1        0   
  41 石厦站       1 1   0  1.0   0.     23.4827  5.8471    0.      0.       10.5    0.    0.      0.      0.      0.05      0   
  42 水贝站       1 1   0  .970850.     27.6733  .5404000000.      0.       10.5    0.    0.      0.      0.      0.        0   
  43 经贸站       1 1   0  1.0   0.     0.       0.        0.      0.       230.0   0.    0.      0.      0.      0.        0   
  44 惠州站_EQU   1 1   0  1.0   0.     -0.0887  8.4274    0.      0.       230.0   0.    0.      0.      0.      0.        0   
  45 腾飞站       1 1   0  1.0   0.     0.       0.        0.      0.       115.0   0.    0.      0.      0.      0.        0   
  46 新百站       1 1   0  .968130.     0.       0.        0.      0.       115.0   0.    0.      0.      0.      0.        0   
  47 ST_深圳地区_ 1 1   2  1.0   0.     0.       0.        0.      -19.061  230.0   0.    99900.0 -99900.00.      0.        0   
  48 新玉站       1 1   0  1.00960.     0.       0.        0.      0.       115.0   0.    0.      0.      0.      0.        0   
  49 公明站       1 1   0  .983420.     58.1415  30.4309   0.      0.       10.5    0.    0.      0.      0.      .4809599  0   
  50 Bus_50       1 1   0  1.0   0.     0.       0.        0.      0.       0.      0.    0.      0.      0.      0.        0   
  51 沙角总厂_EQU 1 1   2  1.0   0.     0.       0.        607.541170.3572  19.0    0.    99900.0 -99900.00.      0.        0   
  52 南头站       1 1   0  1.02680.     0.       0.        0.      0.       115.0   0.    0.      0.      0.      0.        0   
  53 皇岗站       1 1   0  .976570.     26.25970012.9898   0.      0.       10.5    0.    0.      0.      0.      .3206399  0   
  54 Bus_54       1 1   0  1.0   0.     0.       0.        0.      0.       0.      0.    0.      0.      0.      0.        0   
  55 坑梓站       1 1   0  .978850.     34.16309912.24570000.      0.       10.5    0.    0.      0.      0.      .1        0   
  56 观澜站       1 1   0  .985170.     37.6505  15.24900000.      0.       10.5    0.    0.      0.      0.      0.        0   
  57 科技园站     1 1   0  .986930.     0.       0.        0.      0.       115.0   0.    0.      0.      0.      0.        0   
  58 陆联站       1 1   0  .984600.     63.93870011.4225   0.      0.       10.5    0.    0.      0.      0.      0.088559  0   
  59 ST_深圳地区_ 1 1   2  1.0   0.     0.       0.        0.      45.88    525.0   0.    99900.0 -99900.00.      0.        0   
  60 水贝站       1 1   0  .980810.     0.       0.        0.      0.       115.0   0.    0.      0.      0.      0.        0   
  61 公明站       1 1   0  .988850.     0.       0.        0.      0.       230.0   0.    0.      0.      0.      0.        0   
  62 简龙站       1 1   0  1.0   0.     0.       0.        0.      0.       115.0   0.    0.      0.      0.      0.        0   
  63 六约站       1 1   0  .977370.     0.       0.        0.      0.       115.0   0.    0.      0.      0.      0.        0   
  64 龙塘站       1 1   0  1.0   0.     0.       0.        0.      0.       10.5    0.    0.      0.      0.      0.        0   
  65 燕罗站       1 1   0  .967020.     61.9391  8.5074    0.      0.       10.5    0.    0.      0.      0.      .3006000  0   
  66 Bus_66       1 1   0  1.0   0.     0.       0.        0.      0.       0.      0.    0.      0.      0.      0.        0   
  67 岗厦站       1 1   0  .972570.     44.3377  11.34189990.      0.       10.5    0.    0.      0.      0.      .2004000  0   
  68 龙梅上T接点  1 1   0  1.0   0.     0.       0.        0.      0.       115.0   0.    0.      0.      0.      0.        0   
  69 葵冲站       1 1   0  .936930.     0.       0.        0.      0.       38.0    0.    0.      0.      0.      0.        0   
  70 Bus_70       1 1   0  1.0   0.     0.       0.        0.      0.       0.      0.    0.      0.      0.      0.        0   
  71 ST_深圳地区_ 1 1   2  1.0   0.     0.       0.        0.      0.       230.0   0.    99900.0 -99900.00.      0.        0   
  72 凤凰站       1 1   0  .969050.     0.       0.        0.      0.       115.0   0.    0.      0.      0.      0.        0   
  73 新安站       1 1   0  .975260.     31.24800011.6247   0.      0.       10.5    0.    0.      0.      0.      .1        0   
  74 龙华站       1 1   0  .981810.     0.       0.        0.      0.       115.0   0.    0.      0.      0.      0.        0   
  75 中航站       1 1   0  .983680.     0.       0.        0.      0.       115.0   0.    0.      0.      0.      0.        0   
  76 东莞站_EQU   1 1   0  1.0   0.     .5243    15.1229   0.      0.       230.0   0.    0.      0.      0.      0.        0   
  77 Bus_77       1 1   0  1.0   0.     0.       0.        0.      0.       0.      0.    0.      0.      0.      0.        0   
  78 Bus_78       1 1   0  1.0   0.     0.       0.        0.      0.       0.      0.    0.      0.      0.      0.        0   
  79 Bus_79       1 1   0  1.0   0.     0.       0.        0.      0.       0.      0.    0.      0.      0.      0.        0   
  80 和平站       1 1   0  .9624 0.     39.0858  13.3629   0.      0.       10.5    0.    0.      0.      0.      0.05      0   
  81 妈湾厂_EQU   1 1   2  1.0   0.     0.       0.        285.084975.7908  22.0    0.    99900.0 -99900.00.      0.        0   
  82 南山站       1 1   0  1.00100.     0.       0.        0.      0.       115.0   0.    0.      0.      0.      0.        0   
  83 盘古石站     1 1   0  1.0   0.     0.       0.        0.      0.       230.0   0.    0.      0.      0.      0.        0   
  84 上村站       1 1   0  .983390.     0.       0.        0.      0.       115.0   0.    0.      0.      0.      0.        0   
  85 ST_深圳地区_ 1 1   2  1.0   0.     0.       0.        0.      0.       230.0   0.    99900.0 -99900.00.      0.        0   
  86 Bus_86       1 1   0  1.0   0.     0.       0.        0.      0.       0.      0.    0.      0.      0.      0.        0   
  87 陆联站       1 1   0  .973240.     30.5946996.2919    0.      0.       10.5    0.    0.      0.      0.      0.        0   
  88 沙角总厂_EQU 1 1   2  1.0   0.     0.       0.        609.17  73.2475  19.0    0.    99900.0 -99900.00.      0.        0   
  89 白田站       1 1   0  .978870.     0.       0.        0.      0.       115.0   0.    0.      0.      0.      0.        0   
  90 Bus_90       1 1   0  1.0   0.     0.       0.        0.      0.       0.      0.    0.      0.      0.      0.        0   
  91 星河站       1 1   0  .983770.     -0.219   .8411000000.      0.       10.5    0.    0.      0.      0.      .3006000  0   
  92 石厦站       1 1   0  1.0   0.     0.       0.        0.      0.       115.0   0.    0.      0.      0.      0.        0   
  93 王家站       1 1   0  .994960.     94.6734  39.6338   0.      0.       10.5    0.    0.      0.      0.      .1        0   
  94 白田站       1 1   0  .976310.     22.860999.6795000000.      0.       10.5    0.    0.      0.      0.      0.        0   
  95 祥和站       1 1   0  .972830.     0.       0.        0.      0.       115.0   0.    0.      0.      0.      0.        0   
  96 西乡站       1 1   0  1.0   0.     0.       0.        0.      0.       115.0   0.    0.      0.      0.      0.        0   
  97 沙角总厂_EQU 1 1   0  1.0   0.     0.       0.        0.      0.       525.0   0.    0.      0.      0.      0.        0   
  98 Bus_98       1 1   0  1.0   0.     0.       0.        0.      0.       0.      0.    0.      0.      0.      0.        0   
  99 坪山站       1 1   0  .993440.     8.1246   -2.1021   0.      0.       230.0   0.    0.      0.      0.      0.        0   
 100 罗湖站       1 1   0  .995420.     25.1483005.2016    0.      0.       10.5    0.    0.      0.      0.      0.096960  0   
 101 ST_深圳地区_ 1 1   2  1.0   0.     0.       0.        0.      -207.935 525.0   0.    99900.0 -99900.00.      0.        0   
 102 简龙站       1 1   0  1.0   0.     0.       0.        0.      0.       10.5    0.    0.      0.      0.      0.        0   
 103 Bus_103      1 1   0  1.0   0.     0.       0.        0.      0.       0.      0.    0.      0.      0.      0.        0   
 104 沙角总厂_EQU 1 1   0  1.0   0.     -25.3621066.7114   0.      0.       525.0   0.    0.      0.      0.      0.        0   
 105 向前站       1 1   0  .962910.     0.       0.        0.      0.       115.0   0.    0.      0.      0.      0.        0   
 106 ST_深圳地区_ 1 1   2  1.0   0.     0.       0.        0.      0.       230.0   0.    99900.0 -99900.00.      0.        0   
 107 湖洋站       1 1   0  1.00680.     0.       0.        0.      0.       115.0   0.    0.      0.      0.      0.        0   
 108 高新站       1 1   0  1.0   0.     0.       0.        0.      0.       115.0   0.    0.      0.      0.      0.        0   
 109 盘古石站     1 1   0  1.0   0.     0.       0.        0.      0.       10.5    0.    0.      0.      0.      0.        0   
 110 ST_深圳地区_ 1 1   2  1.0   0.     0.       0.        0.      0.       230.0   0.    99900.0 -99900.00.      0.        0   
 111 Bus_111      1 1   0  1.0   0.     0.       0.        0.      0.       0.      0.    0.      0.      0.      0.        0   
 112 欢乐站       1 1   0  .987370.     0.       0.        0.      0.       10.5    0.    0.      0.      0.      .2004000  0   
 113 妈湾厂_EQU   1 1   2  1.0   0.     0.       0.        287.405971.096   22.0    0.    99900.0 -99900.00.      0.        0   
 114 南澳站       1 1   0  .991930.     0.       0.        0.      0.       115.0   0.    0.      0.      0.      0.        0   
 115 福永站       1 1   0  .992570.     65.7837  33.0886   0.      0.       10.5    0.    0.      0.      0.      .1503000  0   
 116 Bus_116      1 1   0  1.0   0.     0.       0.        0.      0.       0.      0.    0.      0.      0.      0.        0   
 117 梅林站       1 1   0  1.0   0.     0.       0.        0.      0.       10.5    0.    0.      0.      0.      0.        0   
 118 钰湖厂       1 1   2  1.0   0.     0.       0.        153.084738.5185  115.0   0.    99900.0 -99900.00.      0.        0   
 119 祥和站       1 1   0  1.01150.     0.       0.        0.      0.       230.0   0.    0.      0.      0.      0.        0   
 120 惠州站_EQU   1 1   0  1.0   0.     0.       0.        0.      0.       34.5    0.    0.      0.      0.      0.        0   
 121 金岗厂       1 1   2  1.0   0.     0.       0.        .8406   -0.5232  115.0   0.    99900.0 -99900.00.      0.        0   
 122 松北站       1 1   0  .984300.     0.       0.        0.      0.       115.0   0.    0.      0.      0.      0.        0   
 123 信垅站_EQU   1 1   0  1.0   0.     265.0689019.77270000.      0.       230.0   0.    0.      0.      0.      0.        0   
 124 深圳站       1 1   0  1.00000.     0.       0.        0.      0.       34.5    0.    0.      0.      0.      -0.94999  0   
 125 莲花山站     1 1   0  .979660.     0.       0.        0.      0.       115.0   0.    0.      0.      0.      0.        0   
 126 ST_深圳地区_ 1 1   2  1.0   0.     0.       0.        0.      -41.0195 525.0   0.    99900.0 -99900.00.      0.        0   
 127 大浪站       1 1   0  .962510.     0.       0.        0.      0.       115.0   0.    0.      0.      0.      0.        0   
 128 田寮站       1 1   0  1.0   0.     39.559700-4.2195   0.      0.       10.5    0.    0.      0.      0.      .3006000  0   
 129 东湖站       1 1   0  1.0   0.     0.       0.        0.      0.       10.5    0.    0.      0.      0.      0.        0   
 130 ST_深圳地区_ 1 1   2  1.0   0.     0.       0.        0.      0.       525.0   0.    99900.0 -99900.00.      0.        0   
 131 中航站       1 1   0  1.0   0.     0.       0.        0.      0.       10.5    0.    0.      0.      0.      0.        0   
 132 坪山站       1 1   0  .972780.     0.       0.        0.      0.       115.0   0.    0.      0.      0.      0.        0   
 133 ST_深圳地区_ 1 1   2  1.0   0.     0.       0.        0.      -28.8525 230.0   0.    99900.0 -99900.00.      0.        0   
 134 岗头站       1 1   0  .992740.     44.69420014.36169990.      0.       10.5    0.    0.      0.      0.      .1002000  0   
 135 深圳站       1 1   0  .993710.     0.       0.        0.      0.       525.0   0.    0.      0.      0.      0.        0   
 136 中航站       1 1   0  1.01580.     0.       0.        0.      0.       230.0   0.    0.      0.      0.      0.        0   
 137 Bus_137      1 1   0  1.0   0.     0.       0.        0.      0.       0.      0.    0.      0.      0.      0.        0   
 138 简龙站       1 1   0  .989820.     -24.427  .4834     0.      0.       115.0   0.    0.      0.      0.      0.        0   
 139 西乡站       1 1   0  1.01120.     0.       0.        0.      0.       115.0   0.    0.      0.      0.      0.        0   
 140 Bus_140      1 1   0  1.0   0.     0.       0.        0.      0.       0.      0.    0.      0.      0.      0.        0   
 141 工业区站     1 1   0  .993840.     19.7979006.0801    0.      0.       10.5    0.    0.      0.      0.      .1500000  0   
 142 清水河站     1 1   0  .968570.     36.7664  24.89360000.      0.       10.5    0.    0.      0.      0.      .7214399  0   
 143 马坳站       1 1   0  1.0   0.     0.       0.        0.      0.       10.5    0.    0.      0.      0.      0.        0   
 144 Bus_144      1 1   0  1.0   0.     0.       0.        0.      0.       0.      0.    0.      0.      0.      0.        0   
 145 ST_深圳地区_ 1 1   2  1.0   0.     0.       0.        0.      -24.0304 230.0   0.    99900.0 -99900.00.      0.        0   
 146 海景站       1 1   0  .974340.     19.7611  4.1203    0.      0.       10.5    0.    0.      0.      0.      .1        0   
 147 ST_深圳地区_ 1 1   2  1.0   0.     0.       0.        0.      -29.3983 230.0   0.    99900.0 -99900.00.      0.        0   
 148 沙角总厂_EQU 1 1   2  1.0   0.     0.       0.        183.16  14.53270 15.75   0.    99900.0 -99900.00.      0.        0   
 149 深圳站       1 1   0  1.02860.     0.       0.        0.      0.       34.5    0.    0.      0.      0.      -0.49999  0   
 150 李朗站       1 1   0  .995480.     10.9852  7.167100000.      0.       10.5    0.    0.      0.      0.      1.202099  0   
 151 坪山站       1 1   0  .973140.     56.4575  17.90760000.      0.       10.5    0.    0.      0.      0.      0.096960  0   
 152 Bus_152      1 1   0  1.0   0.     0.       0.        0.      0.       0.      0.    0.      0.      0.      0.        0   
 153 李朗站       1 1   0  1.0   0.     0.       0.        0.      0.       10.5    0.    0.      0.      0.      0.        0   
 154 Bus_154      1 1   0  1.0   0.     0.       0.        0.      0.       0.      0.    0.      0.      0.      0.        0   
 155 Bus_155      1 1   0  1.0   0.     0.       0.        0.      0.       0.      0.    0.      0.      0.      0.        0   
 156 深圳站       1 1   0  1.0   0.     0.       0.        0.      0.       525.0   0.    0.      0.      0.      0.        0   
 157 共乐站       1 1   0  .980240.     0.       0.        0.      0.       115.0   0.    0.      0.      0.      0.        0   
 158 Bus_158      1 1   0  1.0   0.     0.       0.        0.      0.       0.      0.    0.      0.      0.      0.        0   
 159 岗厦站       1 1   0  1.0   0.     0.       0.        0.      0.       115.0   0.    0.      0.      0.      0.        0   
 160 美视B厂      1 1   2  1.0   0.     0.       0.        179.203 48.1084  115.0   0.    99900.0 -99900.00.      0.        0   
 161 老大屋站     1 1   0  .967630.     33.0371  25.4691   0.      0.       10.5    0.    0.      0.      0.      0.        0   
 162 大富站       1 1   0  .957000.     0.       0.        0.      0.       115.0   0.    0.      0.      0.      0.        0   
 163 福民站       1 1   0  .952230.     0.       0.        0.      0.       115.0   0.    0.      0.      0.      0.        0   
 164 沙角总厂_EQU 1 1   2  1.0   0.     0.       0.        181.62974.0279   15.75   0.    99900.0 -99900.00.      0.        0   
 165 公明站       1 1   0  .986550.     0.       0.        0.      0.       115.0   0.    0.      0.      0.      0.        0   
 166 沙角总厂_EQU 1 1   2  1.0   0.     0.       0.        188.289512.6309  15.75   0.    99900.0 -99900.00.      0.        0   
 167 沙角总厂_EQU 1 1   0  1.0   0.     4.9284   6.9812    0.      0.       34.5    0.    0.      0.      0.      0.        0   
 168 科技园站     1 1   0  .985800.     39.2018  12.72660000.      0.       10.5    0.    0.      0.      0.      .1        0   
 169 李朗站       1 1   0  1.0   0.     0.       0.        0.      0.       10.5    0.    0.      0.      0.      0.        0   
 170 光明站       1 1   0  .943680.     0.       0.        0.      0.       115.0   0.    0.      0.      0.      0.        0   
 171 坪山站       1 1   0  1.0   0.     0.       0.        0.      0.       10.5    0.    0.      0.      0.      0.        0   
 172 莞城站_EQU   1 1   0  1.0   0.     -26.472095.2764    0.      0.       34.5    0.    0.      0.      0.      0.        0   
 173 Bus_173      1 1   0  1.0   0.     0.       0.        0.      0.       0.      0.    0.      0.      0.      0.        0   
 174 南澳站       1 1   0  .973480.     5.7951   1.1274    0.      0.       10.5    0.    0.      0.      0.      .1        0   
 175 坪地站       1 1   0  .941110.     0.       0.        0.      0.       115.0   0.    0.      0.      0.      0.        0   
 176 东莞站_EQU   1 1   0  1.0   0.     -0.2207  1.2257    0.      0.       34.5    0.    0.      0.      0.      0.        0   
 177 春风站       1 1   0  .966280.     41.5672  11.545    0.      0.       10.5    0.    0.      0.      0.      .1920000  0   
 178 妈湾厂_EQU   1 1   2  1.0   0.     0.       0.        290.161563.1119  22.0    0.    99900.0 -99900.00.      0.        0   
 179 潭头站       1 1   0  .974570.     51.39980018.9702   0.      0.       10.5    0.    0.      0.      0.      .1002000  0   
 180 田寮站       1 1   0  .988040.     0.       0.        0.      0.       115.0   0.    0.      0.      0.      0.        0   
 181 ST_深圳地区_ 1 1   2  1.0   0.     0.       0.        0.      -19.8312 230.0   0.    99900.0 -99900.00.      0.        0   
 182 东湖站       1 1   0  .979660.     0.       0.        0.      0.       115.0   0.    0.      0.      0.      0.        0   
 183 鹏城站       1 1   0  1.01530.     0.       0.        0.      0.       34.5    0.    0.      0.      0.      2.4       0   
 184 六约站       1 1   0  .977140.     47.4106  20.3038   0.      0.       10.5    0.    0.      0.      0.      0.05      0   
 185 ST_深圳地区_ 1 1   2  1.0   0.     0.       0.        0.      -52.4385 230.0   0.    99900.0 -99900.00.      0.        0   
 186 腾飞站       1 1   0  1.0   0.     0.       0.        0.      0.       10.5    0.    0.      0.      0.      0.        0   
 187 清水河站     1 1   0  .972780.     0.       0.        0.      0.       115.0   0.    0.      0.      0.      0.        0   
 188 Bus_188      1 1   0  1.0   0.     0.       0.        0.      0.       0.      0.    0.      0.      0.      0.        0   
 189 ST_深圳地区_ 1 1   2  1.0   0.     0.       0.        0.      0.       230.0   0.    99900.0 -99900.00.      0.        0   
 190 龙塘站       1 1   0  1.0   0.     0.       0.        0.      0.       230.0   0.    0.      0.      0.      0.        0   
 191 Bus_191      1 1   0  1.0   0.     0.       0.        0.      0.       0.      0.    0.      0.      0.      0.        0   
 192 深圳站       1 1   0  1.0   0.     0.       0.        0.      0.       430.0   0.    0.      0.      0.      0.        0   
 193 罗湖站       1 1   0  1.00740.     45.053   17.92540000.      0.       10.5    0.    0.      0.      0.      0.096960  0   
 194 Bus_194      1 1   0  1.0   0.     0.       0.        0.      0.       0.      0.    0.      0.      0.      0.        0   
 195 岭澳核电_EQU 1 1   2  1.0   0.     0.       0.        971.7659101.1263 26.0    0.    99900.0 -99900.00.      0.        0   
 196 ST_深圳地区_ 1 1   2  1.0   0.     0.       0.        0.      0.       525.0   0.    99900.0 -99900.00.      0.        0   
 197 Bus_197      1 1   0  1.0   0.     0.       0.        0.      0.       0.      0.    0.      0.      0.      0.        0   
 198 红岭站       1 1   0  .971860.     0.       0.        0.      0.       115.0   0.    0.      0.      0.      0.        0   
 199 莞城站_EQU   1 1   0  1.0   0.     0.02689991.6054    0.      0.       230.0   0.    0.      0.      0.      0.        0   
 200 万安站       1 1   0  .960050.     17.3174  .9106     0.      0.       10.5    0.    0.      0.      0.      .1002000  0   
...
-999
BRANCH DATA FOLLOWS                    1641 ITEMS
165  122  1 1   1 00.003674850.0182986770.003072000     0     0     0    0  0.     0.     0.     0.      0.     0.     999.0  
577  498  1 1   1 00.003576550.0102999990.        0     0     0     0    0  0.     0.     0.     0.      0.     0.     999.0  
367  313  1 1   1 0914934.018914934.01890.        0     0     0     0    0  0.     0.     0.     0.      0.     0.     999.0  
570  199  1 1   1 00.003751220.0097897920.034756990     0     0     0    0  0.     0.     0.     0.      0.     0.     999.0  
145  251  1 1   1 0914934.018914934.01890.        0     0     0     0    0  0.     0.     0.     0.      0.     0.     999.0  
518  44   1 1   1 00.001738370.0084173900.022952000     0     0     0    0  0.     0.     0.     0.      0.     0.     999.0  
458  488  1 1   1 00.        .21886621470.        0     0     0     0    0  0.     0.     0.     0.      0.     0.     999.0  
9    462  1 1   1 0914934.018914934.01890.        0     0     0     0    0  0.     0.     0.     0.      0.     0.     999.0  
147  9    1 1   1 0914934.018914934.01890.        0     0     0     0    0  0.     0.     0.     0.      0.     0.     999.0  
505  182  1 1   1 00.001814740.0068801510.        0     0     0     0    0  0.     0.     0.     0.      0.     0.     999.0  
132  598  1 1   1 07.258979260.0023001884.800000040     0     0     0    0  0.     0.     0.     0.      0.     0.     999.0  
104  265  1 1   1 03.628117910.003990929.5655820080     0     0     0    0  0.     0.     0.     0.      0.     0.     999.0  
256  47   1 1   1 0914934.018914934.01890.        0     0     0     0    0  0.     0.     0.     0.      0.     0.     999.0  
301  26   1 1   1 0914934.018914934.01890.        0     0     0     0    0  0.     0.     0.     0.      0.     0.     999.0  
258  47   1 1   1 0914934.018914934.01890.        0     0     0     0    0  0.     0.     0.     0.      0.     0.     999.0  
586  192  1 1   1 02.000000000.001999999.1        0     0     0     0    0  0.     0.     0.     0.      0.     0.     999.0  
542  145  1 1   1 0914934.018914934.01890.        0     0     0     0    0  0.     0.     0.     0.      0.     0.     999.0  
117  263  1 1   1 00.        .18376417440.        0     0     0     0    0  0.     0.     0.     0.      0.     0.     999.0  
338  537  1 1   1 00.001017010.0046119090.022077990     0     0     0    0  0.     0.     0.     0.      0.     0.     999.0  
258  210  1 1   1 0914934.018914934.01890.        0     0     0     0    0  0.     0.     0.     0.      0.     0.     999.0  
249  432  1 1   1 00.012406800.0603720220.        0     0     0     0    0  0.     0.     0.     0.      0.     0.     999.0  
325  133  1 1   1 0914934.018914934.01890.        0     0     0     0    0  0.     0.     0.     0.      0.     0.     999.0  
9    256  1 1   1 0914934.018914934.01890.        0     0     0     0    0  0.     0.     0.     0.      0.     0.     999.0  
530  133  1 1   1 0914934.018914934.01890.        0     0     0     0    0  0.     0.     0.     0.      0.     0.     999.0  
301  210  1 1   1 0914934.018914934.01890.        0     0     0     0    0  0.     0.     0.     0.      0.     0.     999.0  
147  251  1 1   1 0914934.018914934.01890.        0     0     0     0    0  0.     0.     0.     0.      0.     0.     999.0  
19   255  1 1   1 01.497164450.0019999990.        0     0     0     0    0  0.     0.     0.     0.      0.     0.     999.0  
596  514  1 1   1 00.010858220.0357550090.003763990     0     0     0    0  0.     0.     0.     0.      0.     0.     999.0  
6    424  1 1   1 06.238185500.0023909260.        0     0     0     0    0  0.     0.     0.     0.      0.     0.     999.0  
520  230  1 1   1 0914934.018914934.01890.        0     0     0     0    0  0.     0.     0.     0.      0.     0.     999.0  
263  218  1 1   1 00.        .18376417440.        0     0     0     0    0  0.     0.     0.     0.      0.     0.     999.0  
249  516  1 1   1 00.003634020.0200083170.003066000     0     0     0    0  0.     0.     0.     0.      0.     0.     999.0  
356  520  1 1   1 0914934.018914934.01890.        0     0     0     0    0  0.     0.     0.     0.      0.     0.     999.0  
175  39   1 1   1 00.        0.         0.        0     0     0     0    0  0.     0.     0.     0.      0.     0.     999.0  
47   462  1 1   1 0914934.018914934.01890.        0     0     0     0    0  0.     0.     0.     0.      0.     0.     999.0  
301  147  1 1   1 0914934.018914934.01890.        0     0     0     0    0  0.     0.     0.     0.      0.     0.     999.0  
35   185  1 1   1 0914934.018914934.01890.        0     0     0     0    0  0.     0.     0.     0.      0.     0.     999.0  
181  230  1 1   1 0914934.018914934.01890.        0     0     0     0    0  0.     0.     0.     0.      0.     0.     999.0  
365  82   1 1   1 00.001600000.0083100180.        0     0     0     0    0  0.     0.     0.     0.      0.     0.     999.0  
476  462  1 1   1 0914934.018914934.01890.        0     0     0     0    0  0.     0.     0.     0.      0.     0.     999.0  
304  76   1 1   1 00.002104340.0144559540.052899990     0     0     0    0  0.     0.     0.     0.      0.     0.     999.0  
35   47   1 1   1 0914934.018914934.01890.        0     0     0     0    0  0.     0.     0.     0.      0.     0.     999.0  
47   181  1 1   1 0914934.018914934.01890.        0     0     0     0    0  0.     0.     0.     0.      0.     0.     999.0  
407  283  1 1   1 00.002390170.0121761810.        0     0     0     0    0  0.     0.     0.     0.      0.     0.     999.0  
530  260  1 1   1 0914934.018914934.01890.        0     0     0     0    0  0.     0.     0.     0.      0.     0.     999.0  
417  138  1 1   1 00.002899810.0141996210.        0     0     0     0    0  0.     0.     0.     0.      0.     0.     999.0  
407  561  1 1   1 00.        0.0187886580.        0     0     0     0    0  0.     0.     0.     0.      0.     0.     999.0  
596  187  1 1   1 00.001200000.0056400750.        0     0     0     0    0  0.     0.     0.     0.      0.     0.     999.0  
577  306  1 1   1 00.001279960.0147640830.050714000     0     0     0    0  0.     0.     0.     0.      0.     0.     999.0  
63   366  1 1   1 00.003565970.0118041580.002114000     0     0     0    0  0.     0.     0.     0.      0.     0.     999.0  
570  199  1 1   2 00.003751220.0097897920.034756990     0     0     0    0  0.     0.     0.     0.      0.     0.     999.0  
251  341  1 1   1 0914934.018914934.01890.        0     0     0     0    0  0.     0.     0.     0.      0.     0.     999.0  
356  106  1 1   1 00.        914934.01890.        0     0     0     0    0  0.     0.     0.     0.      0.     0.     999.0  
145  133  1 1   1 0914934.018914934.01890.        0     0     0     0    0  0.     0.     0.     0.      0.     0.     999.0  
297  315  1 1   1 00.009066160.0469897900.        0     0     0     0    0  0.     0.     0.     0.      0.     0.     999.0  
147  230  1 1   1 0914934.018914934.01890.        0     0     0     0    0  0.     0.     0.     0.      0.     0.     999.0  
25   59   1 1   1 0907030.035907030.03570.        0     0     0     0    0  0.     0.     0.     0.      0.     0.     999.0  
95   590  1 1   1 00.009357270.0504249540.        0     0     0     0    0  0.     0.     0.     0.      0.     0.     999.0  
35   313  1 1   1 0914934.018914934.01890.        0     0     0     0    0  0.     0.     0.     0.      0.     0.     999.0  
256  181  1 1   1 0914934.018914934.01890.        0     0     0     0    0  0.     0.     0.     0.      0.     0.     999.0  
577  338  1 1   1 05.100189170.0058410200.021552000     0     0     0    0  0.     0.     0.     0.      0.     0.     999.0  
367  9    1 1   1 0914934.018914934.01890.        0     0     0     0    0  0.     0.     0.     0.      0.     0.     999.0  
47   221  1 1   1 0914934.018914934.01890.        0     0     0     0    0  0.     0.     0.     0.      0.     0.     999.0  
530  258  1 1   1 0914934.018914934.01890.        0     0     0     0    0  0.     0.     0.     0.      0.     0.     999.0  
256  341  1 1   1 0914934.018914934.01890.        0     0     0     0    0  0.     0.     0.     0.      0.     0.     999.0  
99   83   1 1   1 00.003157080.0147449900.        0     0     0     0    0  0.     0.     0.     0.      0.     0.     999.0  
26   258  1 1   1 0914934.018914934.01890.        0     0     0     0    0  0.     0.     0.     0.      0.     0.     999.0  
26   520  1 1   1 0914934.018914934.01890.        0     0     0     0    0  0.     0.     0.     0.      0.     0.     999.0  
251  518  1 1   1 0914934.018914934.01890.        0     0     0     0    0  0.     0.     0.     0.      0.     0.     999.0  
251  181  1 1   1 0914934.018914934.01890.        0     0     0     0    0  0.     0.     0.     0.      0.     0.     999.0  
420  320  1 1   1 00.001890350.0052166350.004027990     0     0     0    0  0.     0.     0.     0.      0.     0.     999.0  
462  542  1 1   1 0914934.018914934.01890.        0     0     0     0    0  0.     0.     0.     0.      0.     0.     999.0  
325  356  1 1   1 0914934.018914934.01890.        0     0     0     0    0  0.     0.     0.     0.      0.     0.     999.0  
325  9    1 1   1 0914934.018914934.01890.        0     0     0     0    0  0.     0.     0.     0.      0.     0.     999.0  
521  127  1 1   1 00.004019650.0167727780.        0     0     0     0    0  0.     0.     0.     0.      0.     0.     999.0  
521  588  1 1   1 00.005614360.0280718340.        0     0     0     0    0  0.     0.     0.     0.      0.     0.     999.0  
437  246  1 1   1 00.001372400.0085088850.023171000     0     0     0    0  0.     0.     0.     0.      0.     0.     999.0  
542  251  1 1   1 0914934.018914934.01890.        0     0     0     0    0  0.     0.     0.     0.      0.     0.     999.0  
185  473  1 1   1 0914934.018914934.01890.        0     0     0     0    0  0.     0.     0.     0.      0.     0.     999.0  
441  539  1 1   1 00.002526270.0098903580.        0     0     0     0    0  0.     0.     0.     0.      0.     0.     999.0  
540  131  1 1   1 00.        .25505668180.        0     0     0     0    0  0.     0.     0.     0.      0.     0.     999.0  
353  291  1 1   1 00.003869940.0171258970.        0     0     0     0    0  0.     0.     0.     0.      0.     0.     999.0  
233  15   1 1   1 06.086956460.0031962190.        0     0     0     0    0  0.     0.     0.     0.      0.     0.     999.0  
230  313  1 1   1 0914934.018914934.01890.        0     0     0     0    0  0.     0.     0.     0.      0.     0.     999.0  
577  268  1 1   1 07.620038060.0043300560.019235990     0     0     0    0  0.     0.     0.     0.      0.     0.     999.0  
478  545  1 1   1 00.002012850.0155538740.048747000     0     0     0    0  0.     0.     0.     0.      0.     0.     999.0  
365  89   1 1   1 00.001299810.0119599240.        0     0     0     0    0  0.     0.     0.     0.      0.     0.     999.0  
567  598  1 1   1 00.011738370.0363463120.004334000     0     0     0    0  0.     0.     0.     0.      0.     0.     999.0  
2    138  1 1   1 00.002078630.0099810960.        0     0     0     0    0  0.     0.     0.     0.      0.     0.     999.0  
255  60   1 1   1 00.00999999.10000000280.08      0     0     0     0    0  0.     0.     0.     0.      0.     0.     999.0  
150  452  1 1   1 00.        .10430839190.        0     0     0     0    0  0.     0.     0.     0.      0.     0.     999.0  
95   7    1 1   1 00.001361050.0086200370.        0     0     0     0    0  0.     0.     0.     0.      0.     0.     999.0  
272  514  1 1   1 00.001767100.0092529300.        0     0     0     0    0  0.     0.     0.     0.      0.     0.     999.0  
462  256  1 1   1 0914934.018914934.01890.        0     0     0     0    0  0.     0.     0.     0.      0.     0.     999.0  
462  221  1 1   1 0914934.018914934.01890.        0     0     0     0    0  0.     0.     0.     0.      0.     0.     999.0  
520  301  1 1   1 0914934.018914934.01890.        0     0     0     0    0  0.     0.     0.     0.      0.     0.     999.0  
325  473  1 1   1 0914934.018914934.01890.        0     0     0     0    0  0.     0.     0.     0.      0.     0.     999.0  
33   501  1 1   1 00.003430620.0173618130.        0     0     0     0    0  0.     0.     0.     0.      0.     0.     999.0  
210  133  1 1   1 0914934.018914934.01890.        0     0     0     0    0  0.     0.     0.     0.      0.     0.     999.0  
301  185  1 1   1 0914934.018914934.01890.        0     0     0     0    0  0.     0.     0.     0.      0.     0.     999.0  
9    518  1 1   1 0914934.018914934.01890.        0     0     0     0    0  0.     0.     0.     0.      0.     0.     999.0  
133  230  1 1   1 0914934.018914934.01890.        0     0     0     0    0  0.     0.     0.     0.      0.     0.     999.0  
251  26   1 1   1 0914934.018914934.01890.        0     0     0     0    0  0.     0.     0.     0.      0.     0.     999.0  
230  221  1 1   1 0914934.018914934.01890.        0     0     0     0    0  0.     0.     0.     0.      0.     0.     999.0  
250  61   1 1   1 00.001947060.0086196600.027762000     0     0     0    0  0.     0.     0.     0.      0.     0.     999.0  
515  297  1 1   1 00.005510010.0286956520.        0     0     0     0    0  0.     0.     0.     0.      0.     0.     999.0  
332  598  1 1   1 00.010468800.0324257090.003864000     0     0     0    0  0.     0.     0.     0.      0.     0.     999.0  
256  147  1 1   1 0914934.018914934.01890.        0     0     0     0    0  0.     0.     0.     0.      0.     0.     999.0  
169  363  1 1   1 00.        .10430839190.        0     0     0     0    0  0.     0.     0.     0.      0.     0.     999.0  
181  44   1 1   1 00.003202260.0196710770.068201990     0     0     0    0  0.     0.     0.     0.      0.     0.     999.0  
462  570  1 1   1 00.001189410.0058555760.019018000     0     0     0    0  0.     0.     0.     0.      0.     0.     999.0  
542  258  1 1   1 0914934.018914934.01890.        0     0     0     0    0  0.     0.     0.     0.      0.     0.     999.0  
35   258  1 1   1 0914934.018914934.01890.        0     0     0     0    0  0.     0.     0.     0.      0.     0.     999.0  
486  598  1 1   1 00.003222680.0158026460.        0     0     0     0    0  0.     0.     0.     0.      0.     0.     999.0  
301  76   1 1   1 00.003019280.020860491.1211019990     0     0     0    0  0.     0.     0.     0.      0.     0.     999.0  
1    162  1 1   1 00.004783360.0239130420.        0     0     0     0    0  0.     0.     0.     0.      0.     0.     999.0  
256  476  1 1   1 0914934.018914934.01890.        0     0     0     0    0  0.     0.     0.     0.      0.     0.     999.0  
260  221  1 1   1 0914934.018914934.01890.        0     0     0     0    0  0.     0.     0.     0.      0.     0.     999.0  
473  181  1 1   1 0914934.018914934.01890.        0     0     0     0    0  0.     0.     0.     0.      0.     0.     999.0  
588  74   1 1   1 00.001975040.0097731570.        0     0     0     0    0  0.     0.     0.     0.      0.     0.     999.0  
181  542  1 1   1 0914934.018914934.01890.        0     0     0     0    0  0.     0.     0.     0.      0.     0.     999.0  
313  462  1 1   1 0914934.018914934.01890.        0     0     0     0    0  0.     0.     0.     0.      0.     0.     999.0  
535  343  1 1   1 00.        .17278912110.        0     0     0     0    0  0.     0.     0.     0.      0.     0.     999.0  
139  270  1 1   1 00.003639310.0136287330.001712000     0     0     0    0  0.     0.     0.     0.      0.     0.     999.0  
288  539  1 1   1 00.001665020.0086291110.        0     0     0     0    0  0.     0.     0.     0.      0.     0.     999.0  
165  122  1 1   2 00.003674850.0182986770.003072000     0     0     0    0  0.     0.     0.     0.      0.     0.     999.0  
256  133  1 1   1 0914934.018914934.01890.        0     0     0     0    0  0.     0.     0.     0.      0.     0.     999.0  
72   407  1 1   1 00.009476740.0482699420.        0     0     0     0    0  0.     0.     0.     0.      0.     0.     999.0  
497  297  1 1   1 00.009066910.0469943300.        0     0     0     0    0  0.     0.     0.     0.      0.     0.     999.0  
47   542  1 1   1 0914934.018914934.01890.        0     0     0     0    0  0.     0.     0.     0.      0.     0.     999.0  
518  230  1 1   1 0914934.018914934.01890.        0     0     0     0    0  0.     0.     0.     0.      0.     0.     999.0  
133  221  1 1   1 0914934.018914934.01890.        0     0     0     0    0  0.     0.     0.     0.      0.     0.     999.0  
53   544  1 1   1 00.        .17278912110.        0     0     0     0    0  0.     0.     0.     0.      0.     0.     999.0  
520  185  1 1   1 0914934.018914934.01890.        0     0     0     0    0  0.     0.     0.     0.      0.     0.     999.0  
198  187  1 1   1 08.317580290.0046117200.        0     0     0     0    0  0.     0.     0.     0.      0.     0.     999.0  
61   577  1 1   1 00.002499990.0099000000.036505990     0     0     0    0  0.     0.     0.     0.      0.     0.     999.0  
365  82   1 1   2 05.701323420.0030147440.        0     0     0     0    0  0.     0.     0.     0.      0.     0.     999.0  
461  407  1 1   1 00.004700180.0276113410.        0     0     0     0    0  0.     0.     0.     0.      0.     0.     999.0  
180  283  1 1   1 00.009357270.0504249540.        0     0     0     0    0  0.     0.     0.     0.      0.     0.     999.0  
567  279  1 1   1 00.008998860.0364710760.003783990     0     0     0    0  0.     0.     0.     0.      0.     0.     999.0  
367  44   1 1   1 00.004300180.0206775050.067326990     0     0     0    0  0.     0.     0.     0.      0.     0.     999.0  
230  256  1 1   1 0914934.018914934.01890.        0     0     0     0    0  0.     0.     0.     0.      0.     0.     999.0  
221  44   1 1   1 00.001372400.0086918710.028854990     0     0     0    0  0.     0.     0.     0.      0.     0.     999.0  
325  308  1 1   1 00.        914934.01890.        0     0     0     0    0  0.     0.     0.     0.      0.     0.     999.0  
256  313  1 1   1 0914934.018914934.01890.        0     0     0     0    0  0.     0.     0.     0.      0.     0.     999.0  
15   441  1 1   1 00.002526270.0098903580.        0     0     0     0    0  0.     0.     0.     0.      0.     0.     999.0  
341  530  1 1   1 0914934.018914934.01890.        0     0     0     0    0  0.     0.     0.     0.      0.     0.     999.0  
241  109  1 1   1 00.        0.0599546490.        0     0     0     0    0  0.     0.     0.     0.      0.     0.     999.0  
251  570  1 1   1 09.149338320.0074109630.025576000     0     0     0    0  0.     0.     0.     0.      0.     0.     999.0  
251  530  1 1   1 0914934.018914934.01890.        0     0     0     0    0  0.     0.     0.     0.      0.     0.     999.0  
503  201  1 1   1 01.890359190.0057466910.        0     0     0     0    0  0.     0.     0.     0.      0.     0.     999.0  
313  133  1 1   1 0914934.018914934.01890.        0     0     0     0    0  0.     0.     0.     0.      0.     0.     999.0  
33   432  1 1   1 00.004263130.0218336480.        0     0     0     0    0  0.     0.     0.     0.      0.     0.     999.0  
133  542  1 1   1 0914934.018914934.01890.        0     0     0     0    0  0.     0.     0.     0.      0.     0.     999.0  
351  64   1 1   1 00.        .21886621470.        0     0     0     0    0  0.     0.     0.     0.      0.     0.     999.0  
354  536  1 1   1 0907030.035907030.03570.        0     0     0     0    0  0.     0.     0.     0.      0.     0.     999.0  
515  295  1 1   1 00.001767100.0090449900.        0     0     0     0    0  0.     0.     0.     0.      0.     0.     999.0  
138  105  1 1   1 00.007416250.0234449900.002937990     0     0     0    0  0.     0.     0.     0.      0.     0.     999.0  
549  52   1 1   1 00.003485820.0164567100.002305990     0     0     0    0  0.     0.     0.     0.      0.     0.     999.0  
434  75   1 1   1 04.310018900.0027069940.        0     0     0     0    0  0.     0.     0.     0.      0.     0.     999.0  
26   147  1 1   1 0914934.018914934.01890.        0     0     0     0    0  0.     0.     0.     0.      0.     0.     999.0  
341  145  1 1   1 0914934.018914934.01890.        0     0     0     0    0  0.     0.     0.     0.      0.     0.     999.0  
449  60   1 1   1 05.822306200.0031493380.        0     0     0     0    0  0.     0.     0.     0.      0.     0.     999.0  
410  119  1 1   1 04.669187030.0060300560.        0     0     0     0    0  0.     0.     0.     0.      0.     0.     999.0  
230  145  1 1   1 0914934.018914934.01890.        0     0     0     0    0  0.     0.     0.     0.      0.     0.     999.0  
306  8    1 1   1 06.240075610.0066540640.        0     0     0     0    0  0.     0.     0.     0.      0.     0.     999.0  
47   147  1 1   1 0914934.018914934.01890.        0     0     0     0    0  0.     0.     0.     0.      0.     0.     999.0  
476  367  1 1   1 0914934.018914934.01890.        0     0     0     0    0  0.     0.     0.     0.      0.     0.     999.0  
473  26   1 1   1 0914934.018914934.01890.        0     0     0     0    0  0.     0.     0.     0.      0.     0.     999.0  
356  256  1 1   1 0914934.018914934.01890.        0     0     0     0    0  0.     0.     0.     0.      0.     0.     999.0  
356  147  1 1   1 0914934.018914934.01890.        0     0     0     0    0  0.     0.     0.     0.      0.     0.     999.0  
456  215  1 1   1 00.        .21886621470.        0     0     0     0    0  0.     0.     0.     0.      0.     0.     999.0  
258  76   1 1   1 00.001921360.0116196590.038473000     0     0     0    0  0.     0.     0.     0.      0.     0.     999.0  
125  13   1 1   1 00.002267670.0061398860.        0     0     0     0    0  0.     0.     0.     0.      0.     0.     999.0  
185  530  1 1   1 0914934.018914934.01890.        0     0     0     0    0  0.     0.     0.     0.      0.     0.     999.0  
181  9    1 1   1 0914934.018914934.01890.        0     0     0     0    0  0.     0.     0.     0.      0.     0.     999.0  
2    422  1 1   1 00.007798100.0378442340.        0     0     0     0    0  0.     0.     0.     0.      0.     0.     999.0  
326  488  1 1   1 00.        .21886621470.        0     0     0     0    0  0.     0.     0.     0.      0.     0.     999.0  
199  123  1 1   1 08.234404770.0053066160.018581000     0     0     0    0  0.     0.     0.     0.      0.     0.     999.0  
133  35   1 1   1 0914934.018914934.01890.        0     0     0     0    0  0.     0.     0.     0.      0.     0.     999.0  
260  437  1 1   1 06.404537100.0057640830.019235990     0     0     0    0  0.     0.     0.     0.      0.     0.     999.0  
221  181  1 1   1 0914934.018914934.01890.        0     0     0     0    0  0.     0.     0.     0.      0.     0.     999.0  
325  520  1 1   1 0914934.018914934.01890.        0     0     0     0    0  0.     0.     0.     0.      0.     0.     999.0  
485  525  1 1   1 00.001311900.0113062380.052940000     0     0     0    0  0.     0.     0.     0.      0.     0.     999.0  
260  133  1 1   1 0914934.018914934.01890.        0     0     0     0    0  0.     0.     0.     0.      0.     0.     999.0  
476  133  1 1   1 0914934.018914934.01890.        0     0     0     0    0  0.     0.     0.     0.      0.     0.     999.0  
104  265  1 1   2 04.535147390.007165532.7640329740     0     0     0    0  0.     0.     0.     0.      0.     0.     999.0  
367  260  1 1   1 0914934.018914934.01890.        0     0     0     0    0  0.     0.     0.     0.      0.     0.     999.0  
356  473  1 1   1 0914934.018914934.01890.        0     0     0     0    0  0.     0.     0.     0.      0.     0.     999.0  
306  8    1 1   2 06.240075610.0066540640.        0     0     0     0    0  0.     0.     0.     0.      0.     0.     999.0  
565  398  1 1   1 00.        .10430839190.        0     0     0     0    0  0.     0.     0.     0.      0.     0.     999.0  
230  9    1 1   1 0914934.018914934.01890.        0     0     0     0    0  0.     0.     0.     0.      0.     0.     999.0  
181  145  1 1   1 0914934.018914934.01890.        0     0     0     0    0  0.     0.     0.     0.      0.     0.     999.0  
145  473  1 1   1 0914934.018914934.01890.        0     0     0     0    0  0.     0.     0.     0.      0.     0.     999.0  
530  145  1 1   1 0914934.018914934.01890.        0     0     0     0    0  0.     0.     0.     0.      0.     0.     999.0  
101  207  1 1   1 0907030.035907030.03570.        0     0     0     0    0  0.     0.     0.     0.      0.     0.     999.0  
258  479  1 1   1 00.        914934.01890.        0     0     0     0    0  0.     0.     0.     0.      0.     0.     999.0  
395  44   1 1   1 00.002561810.0087833640.032351990     0     0     0    0  0.     0.     0.     0.      0.     0.     999.0  
165  388  1 1   1 00.013749710.0687500960.        0     0     0     0    0  0.     0.     0.     0.      0.     0.     999.0  
185  476  1 1   1 0914934.018914934.01890.        0     0     0     0    0  0.     0.     0.     0.      0.     0.     999.0  
...
-999
LOSS ZONES FOLLOWS   0 ITEMS
-99
INTERCHANGE DATA FOLLOWS      0 ITEMS
-9
TIE LINES FOLLOWS             0ITEMS
-999
END OF DATA